/batch
/config,noeldb,1     ! force off writing results to database
*get,_wallstrt,active,,time,wall
! ANSYS input file written by Workbench version 2023 R2
! File used for geometry attach: C:\Users\dell\OneDrive - Tribhuvan University\Documents\8th sem\Finite Element Method\MATLAB\Assignment\Assignment_2_10.SLDPRT
/title,2-10--Static Structural (B5)
! ****** Begin Custom Load Command Snippet ******
/COM, ACT Extensions:
/COM,     LSDYNA, 2023.2
/COM,     5f463412-bd3e-484b-87e7-cbc0a665e474, wbex
/COM,/COM,     ANSYSMotion, 2023.2
/COM,     20180725-3f81-49eb-9f31-41364844c769, wbex
/COM,
! ****** End   Custom Load Command Snippet ******
*DIM,_wb_ProjectScratch_dir,string,248
_wb_ProjectScratch_dir(1) = 'C:\Users\dell\OneDrive - Tribhuvan University\Documents\8th sem\Finite Element Method\MATLAB\Assignment\Assignment_2_10-Static 1\_ProjectScratch\Scr611D\'
*DIM,_wb_SolverFiles_dir,string,248
_wb_SolverFiles_dir(1) = 'C:\Users\dell\OneDrive - Tribhuvan University\Documents\8th sem\Finite Element Method\MATLAB\Assignment\Assignment_2_10-Static 1\2-10_files\dp0\SYS-1\MECH\'
*DIM,_wb_userfiles_dir,string,248
_wb_userfiles_dir(1) = 'C:\Users\dell\OneDrive - Tribhuvan University\Documents\8th sem\Finite Element Method\MATLAB\Assignment\Assignment_2_10-Static 1\2-10_files\user_files\'
/com,--- Data in consistent MKS units. See Solving Units in the help system for more information.
/units,MKS
/nopr
/wb,file,start              !  signify a WB generated input file
/prep7
! Turn off shape checking because checks already performed inside WB mesher.
! See help system for more information.
SHPP,OFF,,NOWARN
/nolist
etcon,set             ! allow ANSYS to choose best KEYOP's for 180x elements, resets any applicable keyopt to MAPDL defaults
/com,*********** Nodes for the whole assembly ***********
nblock,3,,18849
(1i9,3e20.9e3)
        1    -1.308460355E-01    -5.241817017E-05     5.000000000E-03
        2     1.308042565E-01     8.988000137E-05     5.000000000E-03
        3    -1.357318526E-01    -6.243068069E-05     5.000000000E-03
        4    -1.405021619E-01    -5.033204104E-05     5.000000000E-03
        5     1.357352767E-01     8.446499858E-05     5.000000000E-03
        6     1.404813524E-01     3.324795514E-05     5.000000000E-03
        7     1.403553450E-01    -4.991633480E-03     5.000000000E-03
        8     1.354585212E-01    -4.904991687E-03     5.000000000E-03
        9     1.304900957E-01    -4.871105361E-03     5.000000000E-03
       10     1.307392198E-01     4.656514723E-03     5.000000000E-03
       11     1.406188914E-01     5.089590208E-03     5.000000000E-03
       12    -1.403868476E-01     4.992095724E-03     5.000000000E-03
       13    -1.355879573E-01     4.832196820E-03     5.000000000E-03
       14    -1.306328371E-01     4.881424303E-03     5.000000000E-03
       15    -1.307462990E-01    -4.652716104E-03     5.000000000E-03
       16    -1.406236106E-01    -5.090504479E-03     5.000000000E-03
       17    -1.402139153E-01     9.986653307E-03     5.000000000E-03
       18    -1.354625451E-01     9.983817719E-03     5.000000000E-03
       19    -1.304772287E-01     9.865726203E-03     5.000000000E-03
       20    -1.305276108E-01    -9.647642045E-03     5.000000000E-03
! ... 17117 like lines cut
/wb,elem,start            !  set before creation of elements
/com,*********** Elements for Body 1 "Assignment_2_10" ***********
et,1,186
keyo,1,2,1          ! set full integration on SOLID186
eblock,19,solid,,2880
(19i9)
        1        1        1        1        0        0        0        0       20        0        1        1      876      875       15     2556     1681     1682     2542
     4810     8613     4876     4809    11303    11302    11306    12782     4811     8618     8614     4878
        1        1        1        1        0        0        0        0       20        0        2        1       15      875      876     2557     2571     3431     3432
     4809     4876     8613     4810    12801    12840    14857    12802     4812     4879     8615     8619
        1        1        1        1        0        0        0        0       20        0        3        1       14      877      876     2556     2543     1680     1681
     4808     4872     8617     4810    12784    11300    11299    11303     4811     4873     8622     8618
        1        1        1        1        0        0        0        0       20        0        4        1      876      877       14     2557     3432     3433     2570
     4810     8617     4872     4808    12802    14859    12838    12800     4812     8619     8623     4874
        1        1        1        1        0        0        0        0       20        0        5        2      936      935       10     2555     1621     1622     2547
     4816     8852     4853     4815    11122    11121    11125    12789     4817     8857     8853     4855
        1        1        1        1        0        0        0        0       20        0        6        2       10      935      936     2558     2566     3491     3492
     4815     4853     8852     4816    12805    12827    14976    12806     4818     4856     8854     8858
        1        1        1        1        0        0        0        0       20        0        7        2        9      937      936     2555     2548     1620     1621
     4814     4849     8856     4816    12791    11119    11118    11122     4817     4850     8861     8857
        1        1        1        1        0        0        0        0       20        0        8        2      936      937        9     2558     3492     3493     2565
     4816     8856     4849     4814    12806    14978    12825    12804     4818     8858     8862     4851
        1        1        1        1        0        0        0        0       20        0        9        2       10     1274        5     2555     2547     1283     2552
     4815     4854     4831     4813    12789    10099    10100    12796     4817     4855    10071     4832
        1        1        1        1        0        0        0        0       20        0       10        2        5     1274       10     2558     2561     3830     2566
     4813     4831     4854     4815    12803    12815    12828    12805     4818     4833    10072     4856
! ... 5741 like lines cut
!Material Id = {B6999275-2E9F-48A6-9C35-625328A01046}
/wb,elem,end               !  done creating elements
/com,*********** Send User Defined Coordinate System(s) ***********
csys,0
toffst,273.15,  ! Temperature offset from absolute zero
/com,*********** Set Reference Temperature ***********
tref,22.
/wb,mat,start              !  starting to send materials
/com,*********** Send Materials ***********
MP,DENS,1,2770,	! kg m^-3
MP,ALPX,1,2.3e-05,	! C^-1
MP,C,1,875,	! J kg^-1 C^-1
MPTEMP,,,,,,,,
MPTEMP,1,-100
MPTEMP,2,0
MPTEMP,3,100
MPTEMP,4,200
MPDATA,KXX,1, ,114,144,165,175,	! W m^-1 C^-1
MPTEMP,,,,,,,,
MPTEMP,,,,,,,,
MPTEMP,1,0
MPTEMP,2,20
MPTEMP,3,100
MPDATA,RSVX,1, ,2.43e-08,2.67e-08,3.63e-08,	! kg m^3 A^-2 s^-3
MPTEMP,,,,,,,,
MP,EX,1,71000000000,	! Pa
MP,NUXY,1,0.33,
MP,MURX,1,1,
MP,UVID,1,00e2f7fd-c0df-49c6-a6c6-c1cc8896ebff
MP,UMID,1,35d48138-be0c-4a97-839b-6fba81b9f834

/wb,mat,end                !  done sending materials
!************************* Model Summary ********************
!Assignment_2_10,	Aluminum Alloy 2,	matid,	1
!************************* End Model Summary ********************
! get the diagonal of the bounding box. Needed later for other things
*get,_xmin,node,,mnloc,x
*get,_ymin,node,,mnloc,y
*get,_zmin,node,,mnloc,z
*get,_xmax,node,,mxloc,x
*get,_ymax,node,,mxloc,y
*get,_zmax,node,,mxloc,z
_ASMDIAG=(_xmax-_xmin)*(_xmax-_xmin)+(_ymax-_ymin)*(_ymax-_ymin)+(_zmax-_zmin)*(_zmax-_zmin)
_ASMDIAG=SQRT(_ASMDIAG)
/wb,contact,start          !  starting to send contact
/wb,contact,end            !  done creating contacts
/golist
/wb,load,start             !  starting to send loads
/com,*********** Fixed Supports ***********
CMBLOCK,_FIXEDSU,NODE,      197
(8i10)
      4030      4031      4032      4033      4034      4035      4036      4037
      4038      4039      4040      4041      4042      4043      4044      4045
      4046      4047      4048      4049      4050      4051      4052      4053
      4054      4367      4368      4369      4370      4371      4372      4373
      4374      4375      4376      4377      4378      4379      4380      4381
      4382      4383      4384      4385      4386      4387      4388      4389
      4390      4391      4392      4393      4394      4395      4396      4397
      4398      4399      4400      4401      4402      4403      4404      4405
      4406      4407      4408      4409      4410      4411      4412      4413
      4414      4415      4416     15908     15909     15910     15911     15912
     15913     15914     15915     15916     15917     15918     15919     15920
     15921     15922     15923     15924     15925     15926     15927     15928
     15929     15930     15931     15932     15933     15934     15935     15936
     15937     15938     15939     15940     15941     15942     15943     15944
     15945     15946     15947     15948     15949     15950     15951     15952
     15953     15954     15955     15957     16479     16480     16481     16482
     16483     16484     16485     16486     16487     16488     16489     16490
     16491     16492     16493     16494     16495     16496     16497     16498
     16499     16500     16501     16502     16503     16504     16505     16506
     16507     16508     16509     16510     16511     16512     16513     16514
! ... 5 like lines cut
cmsel,s,_FIXEDSU
d,all,all
nsel,all
/com,*********** Define Force Without Surface Effect Elements "Force" ***********
local,12,0,0.,0.,0.,0.,0.,0.
csys,0
CMBLOCK,_CM32_3 ,ELEM,       24
(8i10)
      2676      2677      2679      2681      2683      2685      2687      2689
      2691      2693      2695      2697      2699      2701      2703      2705
      2707      2709      2711      2713      2715      2717      2719      2721

CMBLOCK,_CM32_4 ,ELEM,       24
(8i10)
      2675      2678      2680      2682      2684      2686      2688      2690
      2692      2694      2696      2698      2700      2702      2704      2706
      2708      2710      2712      2714      2716      2718      2720      2722


*DIM,_loadvari32x,TABLE,2,1,1,TIME
! Time values
*TAXIS,_loadvari32x(1),1,0.,1.
! Load values
_loadvari32x(1,1,1) = 166666666.666679
_loadvari32x(2,1,1) = 166666666.666679



*DIM,_loadvari32y,TABLE,2,1,1,TIME
! Time values
*TAXIS,_loadvari32y(1),1,0.,1.
! Load values
_loadvari32y(1,1,1) = 0.
_loadvari32y(2,1,1) = 0.



*DIM,_loadvari32z,TABLE,2,1,1,TIME
! Time values
*TAXIS,_loadvari32z(1),1,0.,1.
! Load values
_loadvari32z(1,1,1) = 0.
_loadvari32z(2,1,1) = 0.


/gst,on,on
fini
*get,_numnode,node,0,count
*get,_numelem,elem,0,count
*get, _MAXELEMNUM, elem, 0, NUM, MAX
*get, _MAXNODENUM, node, 0, NUM, MAX
*get, _MAXELEMTYPE, etyp, 0, NUM, MAX
*get, _MAXREALCONST, rcon, 0, NUM, MAX
/go
/wb,load,end               !  done creating loads
/com,--- Number of total nodes = %_numnode%
/com,--- Number of contact elements = 0
/com,--- Number of spring elements = 0
/com,--- Number of bearing elements = 0
/com,--- Number of solid elements = 2880
/com,--- Number of condensed parts = 0
/com,--- Number of total elements = %_numelem%
*get,_wallbsol,active,,time,wall
/com,****************************************************************************
/com,*************************    SOLUTION       ********************************
/com,****************************************************************************
/solu
antype,0                   ! static analysis
_thickRatio=  0     ! Ratio of thick parts in the model
eqsl,sparse,,,,,1
cntr,print,1               ! print out contact info and also make no initial contact an error
cncheck,dmp		!	Enable program controlled contact splitting for distributed memory parallel run
dmpoption,emat,no             ! Don't combine emat file for DANSYS
dmpoption,esav,no             ! Don't combine esav file for DANSYS
nldiag,cont,iter           ! print out contact info each equilibrium iteration
rescontrol,,none                 ! Do not keep any restart files
/com,****************************************************
/com,******************* SOLVE FOR LS 1 OF 1 ****************
/com,*********** Set Force Without Surface Effect Elements "Force" ***********
sfco,1,0,12,,,,,1		! set and send X component tables
sfe,_CM32_3,3,pres,1,%_loadvari32x%
sfe,_CM32_4,4,pres,1,%_loadvari32x%
nsel,all
esel,all
sfco,none		! resets the sfcontrol
/nopr
/gopr
nsub,1,1,1
time,1.
outres,erase
outres,all,none
outres,nsol,all,
outres,rsol,all
outres,eangl,all
outres,etmp,all
outres,veng,all
outres,strs,all,
outres,epel,all,
outres,eppl,all,
outres,cont,all,
! *********** WB SOLVE COMMAND ***********
! check interactive state
*get,ANSINTER_,active,,int
*if,ANSINTER_,ne,0,then
/eof
*endif
solve
/com *************** Write FE CONNECTORS ********* 
CEWRITE,file,ce,,INTE
/com,****************************************************
/com,*************** FINISHED SOLVE FOR LS 1 *************
*get,_wallasol,active,,time,wall
/nopr
*get,_numnode,node,0,count
*get,_numelem,elem,0,count
*get, _MAXELEMNUM, elem, 0, NUM, MAX
*get, _MAXNODENUM, node, 0, NUM, MAX,,,INTERNAL
*get, _MAXELEMTYPE, etyp, 0, NUM, MAX
*get, _MAXREALCONST, rcon, 0, NUM, MAX
*get,_NSOLTHREADS,active,0,ntfs
*get,_NSOLPROCESSES,active,0,npfs
/gopr
/post1
xmlo,ENCODING,ISO-8859-1
xmlo,parm
/xml,parm,xml
fini
/gopr
*get,_walldone,active,,time,wall
_preptime=(_wallbsol-_wallstrt)*3600
_solvtime=(_wallasol-_wallbsol)*3600
_posttime=(_walldone-_wallasol)*3600
_totaltim=(_walldone-_wallstrt)*3600
*get,_dlbratio,active,0,solu,dlbr
*get,_combtime,active,0,solu,comb
*get,_ssmode,active,0,solu,ssmm
*get,_ndofs,active,0,solu,ndof
*get,_sol_end_time,active,0,set,time
*if,_sol_end_time,eq,1.000000,then
/fclean				!clean distributed files
*endif
/com,--- Total number of nodes = %_numnode%
/com,--- Total number of elements = %_numelem%
/com,--- Element load balance ratio = %_dlbratio%
/com,--- Time to combine distributed files = %_combtime%
/com,--- Sparse memory mode = %_ssmode%
/com,--- Number of DOF = %_ndofs%
/wb,file,end               ! done with WB generated input
